#Description: 3D transient Neunann BCs - variably saturated

SIMULATION
  SIMULATION_TYPE SUBSURFACE
  PROCESS_MODELS
    SUBSURFACE_FLOW flow
      MODE RICHARDS
    /
  /
END

SUBSURFACE

#=========================== numerical methods ================================
NUMERICAL_METHODS FLOW

  LINEAR_SOLVER
    SOLVER DIRECT
  /

END

#=========================== solver options ===================================

#=========================== discretization ===================================
GRID
  TYPE STRUCTURED
  NXYZ 2 2 2
  DXYZ
    1.0
    1.0
    1.0
  /
END

#=========================== data sets ========================================

#=========================== material properties ==============================
MATERIAL_PROPERTY soil1
  ID 1
  POROSITY 0.25
  ROCK_DENSITY 2000.0
  SOIL_COMPRESSIBILITY_FUNCTION DEFAULT ! LEIJNSE
  SOIL_COMPRESSIBILITY 1.d-8
  SOIL_REFERENCE_PRESSURE 20000.d0
  CHARACTERISTIC_CURVES cc1
  PERMEABILITY 
    PERM_ISO 1.d-12
  /
END

#=========================== characteristic curves ============================

CHARACTERISTIC_CURVES cc1
  SATURATION_FUNCTION VAN_GENUCHTEN
    ALPHA 3.7073013e-4
    M 0.3872549
    LIQUID_RESIDUAL_SATURATION 0.2806d0
  /
  PERMEABILITY_FUNCTION MUALEM_VG_LIQ
    M 0.3872549
    LIQUID_RESIDUAL_SATURATION 0.2806d0
  /
END

#=========================== eos ==============================================
EOS WATER
 DENSITY IF97
 VISCOSITY DEFAULT
 TEST 10.0 55.0 1.0e6 5.0e6 10 5 uniform uniform
END

#=========================== output options ===================================
OUTPUT
  SNAPSHOT_FILE
    FORMAT HDF5
	FORMAT TECPLOT BLOCK
    PERIODIC TIME 1.0 day
	VARIABLES
	  LIQUID_SATURATION
	  LIQUID_PRESSURE
	  LIQUID_DENSITY
	/
  /
END

#=========================== times ============================================
TIME
  FINAL_TIME 1. d
  INITIAL_TIMESTEP_SIZE 1. d
  MAXIMUM_TIMESTEP_SIZE 1.0 d
END

#=========================== regions ==========================================
REGION all
  COORDINATES
    0.0 0.0 0.0
    16.0 16.0 16.0
  /
END


#=========================== flow conditions ==================================
FLOW_CONDITION initial_pressure
  TYPE
    PRESSURE DIRICHLET
  /
  PRESSURE 20000.d0 Pa
END


#=========================== condition couplers ===============================
# initial condition
INITIAL_CONDITION
  FLOW_CONDITION initial_pressure
  REGION all
END


#=========================== stratigraphy couplers ============================
STRATA
  REGION all
  MATERIAL soil1
END

END_SUBSURFACE
